72

Fe	0.01114358	1.35304344	0.35359613
B	-0.1673683	-1.79960083	-0.03661076
C	-1.1772793	0.42627625	3.8846118
H	-0.5699596	-0.46829081	4.05154361
H	-1.82712145	0.5651167	4.75513925
H	-0.5032497	1.27966418	3.81602495
C	-2.01024348	0.27674518	2.61274691
C	-2.9472644	1.45584614	2.41028539
H	-2.39265747	2.39587085	2.37828327
H	-3.66947579	1.52183094	3.23044264
H	-3.5026647	1.3567152	1.47355262
C	-2.76092778	-1.06118981	2.61832747
H	-2.90696672	-1.48414394	3.61329502
H	-3.72576274	-1.00439476	2.10186195
C	-1.08018178	-1.17386277	1.15675916
C	-0.12161258	1.22958524	-3.53682575
H	0.46286003	2.04076051	-3.10226324
H	-0.51541033	1.56795612	-4.50112708
H	0.54681753	0.38233881	-3.7166622
C	-1.25972026	0.82798696	-2.60264983
C	-2.23920551	1.97060511	-2.39464578
H	-3.02908993	1.68313979	-1.69486773
H	-2.7097486	2.25469161	-3.34178155
H	-1.73244894	2.85335242	-1.9978989
C	-1.94944504	-0.4497221	-3.09851982
H	-3.0233781	-0.45969046	-2.88104769
H	-1.79334618	-0.65459525	-4.1588533
C	-0.73359375	-0.92556268	-1.2866194
C	3.74372691	0.90586628	1.47193412
H	3.57538114	1.95816088	1.23138127
H	4.82356393	0.76875316	1.59308047
H	3.26437044	0.6943521	2.43116391
C	3.21538958	-0.01800578	0.38582458
C	3.78369575	0.35528347	-0.98372383
H	3.45429208	-0.35886943	-1.74381612
H	4.87867027	0.35208958	-0.96193458
H	3.45509722	1.34873742	-1.29724236
C	3.51561229	-1.48876581	0.70770497
H	4.34987999	-1.90667742	0.14128321
H	3.68580726	-1.65631521	1.77753869
C	1.35055611	-1.25737886	0.22228755
C	-0.19658177	-3.40466028	-0.17074793
C	-0.18061196	-4.21841719	0.97092422
H	-0.22718435	-3.76179227	1.95550843
C	-0.10789643	-5.60444014	0.89172957
H	-0.10062504	-6.19818731	1.80253783
C	-0.04407326	-6.23098111	-0.34788986
H	0.01206021	-7.31414454	-0.41628372
C	-0.04979252	-5.45095886	-1.49724882
H	0.00233516	-5.92311281	-2.47526731
C	-0.12238589	-4.06384475	-1.40445428
H	-0.12674308	-3.48659456	-2.32291039
C	0.49854245	2.70088186	1.77970134
H	-0.19310514	2.96645279	2.57792802
H	1.49665046	2.48675587	2.15741497
C	0.4055821	3.52210317	0.60119196
C	-0.67078441	4.4276222	0.3673181
H	-1.38302644	4.60554191	1.16893284
C	-0.77994394	5.12352143	-0.81416414
H	-1.59140879	5.83506676	-0.9425093
C	0.15445621	4.94158004	-1.84844998
H	0.07101679	5.51181916	-2.7682724
C	1.18324808	4.0403783	-1.67003906
H	1.93089621	3.90836903	-2.44793417
C	1.30429278	3.31291469	-0.47576334
H	2.19404494	2.71714408	-0.30947433
N	-1.11415642	0.08232741	1.44881847
N	-0.69620429	0.36134979	-1.31505014
N	1.73459294	-0.03070007	0.30812424
O	-1.33892321	-1.50296024	-2.34067899
O	-1.91542352	-1.94595442	1.87087385
O	2.32283653	-2.18259893	0.3350432872

Fe	0.01114358	1.35304344	0.35359613
B	-0.1673683	-1.79960083	-0.03661076
C	-1.1772793	0.42627625	3.8846118
H	-0.5699596	-0.46829081	4.05154361
H	-1.82712145	0.5651167	4.75513925
H	-0.5032497	1.27966418	3.81602495
C	-2.01024348	0.27674518	2.61274691
C	-2.9472644	1.45584614	2.41028539
H	-2.39265747	2.39587085	2.37828327
H	-3.66947579	1.52183094	3.23044264
H	-3.5026647	1.3567152	1.47355262
C	-2.76092778	-1.06118981	2.61832747
H	-2.90696672	-1.48414394	3.61329502
H	-3.72576274	-1.00439476	2.10186195
C	-1.08018178	-1.17386277	1.15675916
C	-0.12161258	1.22958524	-3.53682575
H	0.46286003	2.04076051	-3.10226324
H	-0.51541033	1.56795612	-4.50112708
H	0.54681753	0.38233881	-3.7166622
C	-1.25972026	0.82798696	-2.60264983
C	-2.23920551	1.97060511	-2.39464578
H	-3.02908993	1.68313979	-1.69486773
H	-2.7097486	2.25469161	-3.34178155
H	-1.73244894	2.85335242	-1.9978989
C	-1.94944504	-0.4497221	-3.09851982
H	-3.0233781	-0.45969046	-2.88104769
H	-1.79334618	-0.65459525	-4.1588533
C	-0.73359375	-0.92556268	-1.2866194
C	3.74372691	0.90586628	1.47193412
H	3.57538114	1.95816088	1.23138127
H	4.82356393	0.76875316	1.59308047
H	3.26437044	0.6943521	2.43116391
C	3.21538958	-0.01800578	0.38582458
C	3.78369575	0.35528347	-0.98372383
H	3.45429208	-0.35886943	-1.74381612
H	4.87867027	0.35208958	-0.96193458
H	3.45509722	1.34873742	-1.29724236
C	3.51561229	-1.48876581	0.70770497
H	4.34987999	-1.90667742	0.14128321
H	3.68580726	-1.65631521	1.77753869
C	1.35055611	-1.25737886	0.22228755
C	-0.19658177	-3.40466028	-0.17074793
C	-0.18061196	-4.21841719	0.97092422
H	-0.22718435	-3.76179227	1.95550843
C	-0.10789643	-5.60444014	0.89172957
H	-0.10062504	-6.19818731	1.80253783
C	-0.04407326	-6.23098111	-0.34788986
H	0.01206021	-7.31414454	-0.41628372
C	-0.04979252	-5.45095886	-1.49724882
H	0.00233516	-5.92311281	-2.47526731
C	-0.12238589	-4.06384475	-1.40445428
H	-0.12674308	-3.48659456	-2.32291039
C	0.49854245	2.70088186	1.77970134
H	-0.19310514	2.96645279	2.57792802
H	1.49665046	2.48675587	2.15741497
C	0.4055821	3.52210317	0.60119196
C	-0.67078441	4.4276222	0.3673181
H	-1.38302644	4.60554191	1.16893284
C	-0.77994394	5.12352143	-0.81416414
H	-1.59140879	5.83506676	-0.9425093
C	0.15445621	4.94158004	-1.84844998
H	0.07101679	5.51181916	-2.7682724
C	1.18324808	4.0403783	-1.67003906
H	1.93089621	3.90836903	-2.44793417
C	1.30429278	3.31291469	-0.47576334
H	2.19404494	2.71714408	-0.30947433
N	-1.11415642	0.08232741	1.44881847
N	-0.69620429	0.36134979	-1.31505014
N	1.73459294	-0.03070007	0.30812424
O	-1.33892321	-1.50296024	-2.34067899
O	-1.91542352	-1.94595442	1.87087385
O	2.32283653	-2.18259893	0.3350432872

Fe	0.01114358	1.35304344	0.35359613
B	-0.1673683	-1.79960083	-0.03661076
C	-1.1772793	0.42627625	3.8846118
H	-0.5699596	-0.46829081	4.05154361
H	-1.82712145	0.5651167	4.75513925
H	-0.5032497	1.27966418	3.81602495
C	-2.01024348	0.27674518	2.61274691
C	-2.9472644	1.45584614	2.41028539
H	-2.39265747	2.39587085	2.37828327
H	-3.66947579	1.52183094	3.23044264
H	-3.5026647	1.3567152	1.47355262
C	-2.76092778	-1.06118981	2.61832747
H	-2.90696672	-1.48414394	3.61329502
H	-3.72576274	-1.00439476	2.10186195
C	-1.08018178	-1.17386277	1.15675916
C	-0.12161258	1.22958524	-3.53682575
H	0.46286003	2.04076051	-3.10226324
H	-0.51541033	1.56795612	-4.50112708
H	0.54681753	0.38233881	-3.7166622
C	-1.25972026	0.82798696	-2.60264983
C	-2.23920551	1.97060511	-2.39464578
H	-3.02908993	1.68313979	-1.69486773
H	-2.7097486	2.25469161	-3.34178155
H	-1.73244894	2.85335242	-1.9978989
C	-1.94944504	-0.4497221	-3.09851982
H	-3.0233781	-0.45969046	-2.88104769
H	-1.79334618	-0.65459525	-4.1588533
C	-0.73359375	-0.92556268	-1.2866194
C	3.74372691	0.90586628	1.47193412
H	3.57538114	1.95816088	1.23138127
H	4.82356393	0.76875316	1.59308047
H	3.26437044	0.6943521	2.43116391
C	3.21538958	-0.01800578	0.38582458
C	3.78369575	0.35528347	-0.98372383
H	3.45429208	-0.35886943	-1.74381612
H	4.87867027	0.35208958	-0.96193458
H	3.45509722	1.34873742	-1.29724236
C	3.51561229	-1.48876581	0.70770497
H	4.34987999	-1.90667742	0.14128321
H	3.68580726	-1.65631521	1.77753869
C	1.35055611	-1.25737886	0.22228755
C	-0.19658177	-3.40466028	-0.17074793
C	-0.18061196	-4.21841719	0.97092422
H	-0.22718435	-3.76179227	1.95550843
C	-0.10789643	-5.60444014	0.89172957
H	-0.10062504	-6.19818731	1.80253783
C	-0.04407326	-6.23098111	-0.34788986
H	0.01206021	-7.31414454	-0.41628372
C	-0.04979252	-5.45095886	-1.49724882
H	0.00233516	-5.92311281	-2.47526731
C	-0.12238589	-4.06384475	-1.40445428
H	-0.12674308	-3.48659456	-2.32291039
C	0.49854245	2.70088186	1.77970134
H	-0.19310514	2.96645279	2.57792802
H	1.49665046	2.48675587	2.15741497
C	0.4055821	3.52210317	0.60119196
C	-0.67078441	4.4276222	0.3673181
H	-1.38302644	4.60554191	1.16893284
C	-0.77994394	5.12352143	-0.81416414
H	-1.59140879	5.83506676	-0.9425093
C	0.15445621	4.94158004	-1.84844998
H	0.07101679	5.51181916	-2.7682724
C	1.18324808	4.0403783	-1.67003906
H	1.93089621	3.90836903	-2.44793417
C	1.30429278	3.31291469	-0.47576334
H	2.19404494	2.71714408	-0.30947433
N	-1.11415642	0.08232741	1.44881847
N	-0.69620429	0.36134979	-1.31505014
N	1.73459294	-0.03070007	0.30812424
O	-1.33892321	-1.50296024	-2.34067899
O	-1.91542352	-1.94595442	1.87087385
O	2.32283653	-2.18259893	0.3350432872

Fe	0.01114358	1.35304344	0.35359613
B	-0.1673683	-1.79960083	-0.03661076
C	-1.1772793	0.42627625	3.8846118
H	-0.5699596	-0.46829081	4.05154361
H	-1.82712145	0.5651167	4.75513925
H	-0.5032497	1.27966418	3.81602495
C	-2.01024348	0.27674518	2.61274691
C	-2.9472644	1.45584614	2.41028539
H	-2.39265747	2.39587085	2.37828327
H	-3.66947579	1.52183094	3.23044264
H	-3.5026647	1.3567152	1.47355262
C	-2.76092778	-1.06118981	2.61832747
H	-2.90696672	-1.48414394	3.61329502
H	-3.72576274	-1.00439476	2.10186195
C	-1.08018178	-1.17386277	1.15675916
C	-0.12161258	1.22958524	-3.53682575
H	0.46286003	2.04076051	-3.10226324
H	-0.51541033	1.56795612	-4.50112708
H	0.54681753	0.38233881	-3.7166622
C	-1.25972026	0.82798696	-2.60264983
C	-2.23920551	1.97060511	-2.39464578
H	-3.02908993	1.68313979	-1.69486773
H	-2.7097486	2.25469161	-3.34178155
H	-1.73244894	2.85335242	-1.9978989
C	-1.94944504	-0.4497221	-3.09851982
H	-3.0233781	-0.45969046	-2.88104769
H	-1.79334618	-0.65459525	-4.1588533
C	-0.73359375	-0.92556268	-1.2866194
C	3.74372691	0.90586628	1.47193412
H	3.57538114	1.95816088	1.23138127
H	4.82356393	0.76875316	1.59308047
H	3.26437044	0.6943521	2.43116391
C	3.21538958	-0.01800578	0.38582458
C	3.78369575	0.35528347	-0.98372383
H	3.45429208	-0.35886943	-1.74381612
H	4.87867027	0.35208958	-0.96193458
H	3.45509722	1.34873742	-1.29724236
C	3.51561229	-1.48876581	0.70770497
H	4.34987999	-1.90667742	0.14128321
H	3.68580726	-1.65631521	1.77753869
C	1.35055611	-1.25737886	0.22228755
C	-0.19658177	-3.40466028	-0.17074793
C	-0.18061196	-4.21841719	0.97092422
H	-0.22718435	-3.76179227	1.95550843
C	-0.10789643	-5.60444014	0.89172957
H	-0.10062504	-6.19818731	1.80253783
C	-0.04407326	-6.23098111	-0.34788986
H	0.01206021	-7.31414454	-0.41628372
C	-0.04979252	-5.45095886	-1.49724882
H	0.00233516	-5.92311281	-2.47526731
C	-0.12238589	-4.06384475	-1.40445428
H	-0.12674308	-3.48659456	-2.32291039
C	0.49854245	2.70088186	1.77970134
H	-0.19310514	2.96645279	2.57792802
H	1.49665046	2.48675587	2.15741497
C	0.4055821	3.52210317	0.60119196
C	-0.67078441	4.4276222	0.3673181
H	-1.38302644	4.60554191	1.16893284
C	-0.77994394	5.12352143	-0.81416414
H	-1.59140879	5.83506676	-0.9425093
C	0.15445621	4.94158004	-1.84844998
H	0.07101679	5.51181916	-2.7682724
C	1.18324808	4.0403783	-1.67003906
H	1.93089621	3.90836903	-2.44793417
C	1.30429278	3.31291469	-0.47576334
H	2.19404494	2.71714408	-0.30947433
N	-1.11415642	0.08232741	1.44881847
N	-0.69620429	0.36134979	-1.31505014
N	1.73459294	-0.03070007	0.30812424
O	-1.33892321	-1.50296024	-2.34067899
O	-1.91542352	-1.94595442	1.87087385
O	2.32283653	-2.18259893	0.3350432872

Fe	0.01114358	1.35304344	0.35359613
B	-0.1673683	-1.79960083	-0.03661076
C	-1.1772793	0.42627625	3.8846118
H	-0.5699596	-0.46829081	4.05154361
H	-1.82712145	0.5651167	4.75513925
H	-0.5032497	1.27966418	3.81602495
C	-2.01024348	0.27674518	2.61274691
C	-2.9472644	1.45584614	2.41028539
H	-2.39265747	2.39587085	2.37828327
H	-3.66947579	1.52183094	3.23044264
H	-3.5026647	1.3567152	1.47355262
C	-2.76092778	-1.06118981	2.61832747
H	-2.90696672	-1.48414394	3.61329502
H	-3.72576274	-1.00439476	2.10186195
C	-1.08018178	-1.17386277	1.15675916
C	-0.12161258	1.22958524	-3.53682575
H	0.46286003	2.04076051	-3.10226324
H	-0.51541033	1.56795612	-4.50112708
H	0.54681753	0.38233881	-3.7166622
C	-1.25972026	0.82798696	-2.60264983
C	-2.23920551	1.97060511	-2.39464578
H	-3.02908993	1.68313979	-1.69486773
H	-2.7097486	2.25469161	-3.34178155
H	-1.73244894	2.85335242	-1.9978989
C	-1.94944504	-0.4497221	-3.09851982
H	-3.0233781	-0.45969046	-2.88104769
H	-1.79334618	-0.65459525	-4.1588533
C	-0.73359375	-0.92556268	-1.2866194
C	3.74372691	0.90586628	1.47193412
H	3.57538114	1.95816088	1.23138127
H	4.82356393	0.76875316	1.59308047
H	3.26437044	0.6943521	2.43116391
C	3.21538958	-0.01800578	0.38582458
C	3.78369575	0.35528347	-0.98372383
H	3.45429208	-0.35886943	-1.74381612
H	4.87867027	0.35208958	-0.96193458
H	3.45509722	1.34873742	-1.29724236
C	3.51561229	-1.48876581	0.70770497
H	4.34987999	-1.90667742	0.14128321
H	3.68580726	-1.65631521	1.77753869
C	1.35055611	-1.25737886	0.22228755
C	-0.19658177	-3.40466028	-0.17074793
C	-0.18061196	-4.21841719	0.97092422
H	-0.22718435	-3.76179227	1.95550843
C	-0.10789643	-5.60444014	0.89172957
H	-0.10062504	-6.19818731	1.80253783
C	-0.04407326	-6.23098111	-0.34788986
H	0.01206021	-7.31414454	-0.41628372
C	-0.04979252	-5.45095886	-1.49724882
H	0.00233516	-5.92311281	-2.47526731
C	-0.12238589	-4.06384475	-1.40445428
H	-0.12674308	-3.48659456	-2.32291039
C	0.49854245	2.70088186	1.77970134
H	-0.19310514	2.96645279	2.57792802
H	1.49665046	2.48675587	2.15741497
C	0.4055821	3.52210317	0.60119196
C	-0.67078441	4.4276222	0.3673181
H	-1.38302644	4.60554191	1.16893284
C	-0.77994394	5.12352143	-0.81416414
H	-1.59140879	5.83506676	-0.9425093
C	0.15445621	4.94158004	-1.84844998
H	0.07101679	5.51181916	-2.7682724
C	1.18324808	4.0403783	-1.67003906
H	1.93089621	3.90836903	-2.44793417
C	1.30429278	3.31291469	-0.47576334
H	2.19404494	2.71714408	-0.30947433
N	-1.11415642	0.08232741	1.44881847
N	-0.69620429	0.36134979	-1.31505014
N	1.73459294	-0.03070007	0.30812424
O	-1.33892321	-1.50296024	-2.34067899
O	-1.91542352	-1.94595442	1.87087385
O	2.32283653	-2.18259893	0.3350432872

Fe	0.01114358	1.35304344	0.35359613
B	-0.1673683	-1.79960083	-0.03661076
C	-1.1772793	0.42627625	3.8846118
H	-0.5699596	-0.46829081	4.05154361
H	-1.82712145	0.5651167	4.75513925
H	-0.5032497	1.27966418	3.81602495
C	-2.01024348	0.27674518	2.61274691
C	-2.9472644	1.45584614	2.41028539
H	-2.39265747	2.39587085	2.37828327
H	-3.66947579	1.52183094	3.23044264
H	-3.5026647	1.3567152	1.47355262
C	-2.76092778	-1.06118981	2.61832747
H	-2.90696672	-1.48414394	3.61329502
H	-3.72576274	-1.00439476	2.10186195
C	-1.08018178	-1.17386277	1.15675916
C	-0.12161258	1.22958524	-3.53682575
H	0.46286003	2.04076051	-3.10226324
H	-0.51541033	1.56795612	-4.50112708
H	0.54681753	0.38233881	-3.7166622
C	-1.25972026	0.82798696	-2.60264983
C	-2.23920551	1.97060511	-2.39464578
H	-3.02908993	1.68313979	-1.69486773
H	-2.7097486	2.25469161	-3.34178155
H	-1.73244894	2.85335242	-1.9978989
C	-1.94944504	-0.4497221	-3.09851982
H	-3.0233781	-0.45969046	-2.88104769
H	-1.79334618	-0.65459525	-4.1588533
C	-0.73359375	-0.92556268	-1.2866194
C	3.74372691	0.90586628	1.47193412
H	3.57538114	1.95816088	1.23138127
H	4.82356393	0.76875316	1.59308047
H	3.26437044	0.6943521	2.43116391
C	3.21538958	-0.01800578	0.38582458
C	3.78369575	0.35528347	-0.98372383
H	3.45429208	-0.35886943	-1.74381612
H	4.87867027	0.35208958	-0.96193458
H	3.45509722	1.34873742	-1.29724236
C	3.51561229	-1.48876581	0.70770497
H	4.34987999	-1.90667742	0.14128321
H	3.68580726	-1.65631521	1.77753869
C	1.35055611	-1.25737886	0.22228755
C	-0.19658177	-3.40466028	-0.17074793
C	-0.18061196	-4.21841719	0.97092422
H	-0.22718435	-3.76179227	1.95550843
C	-0.10789643	-5.60444014	0.89172957
H	-0.10062504	-6.19818731	1.80253783
C	-0.04407326	-6.23098111	-0.34788986
H	0.01206021	-7.31414454	-0.41628372
C	-0.04979252	-5.45095886	-1.49724882
H	0.00233516	-5.92311281	-2.47526731
C	-0.12238589	-4.06384475	-1.40445428
H	-0.12674308	-3.48659456	-2.32291039
C	0.49854245	2.70088186	1.77970134
H	-0.19310514	2.96645279	2.57792802
H	1.49665046	2.48675587	2.15741497
C	0.4055821	3.52210317	0.60119196
C	-0.67078441	4.4276222	0.3673181
H	-1.38302644	4.60554191	1.16893284
C	-0.77994394	5.12352143	-0.81416414
H	-1.59140879	5.83506676	-0.9425093
C	0.15445621	4.94158004	-1.84844998
H	0.07101679	5.51181916	-2.7682724
C	1.18324808	4.0403783	-1.67003906
H	1.93089621	3.90836903	-2.44793417
C	1.30429278	3.31291469	-0.47576334
H	2.19404494	2.71714408	-0.30947433
N	-1.11415642	0.08232741	1.44881847
N	-0.69620429	0.36134979	-1.31505014
N	1.73459294	-0.03070007	0.30812424
O	-1.33892321	-1.50296024	-2.34067899
O	-1.91542352	-1.94595442	1.87087385
O	2.32283653	-2.18259893	0.3350432872

Fe	0.01114358	1.35304344	0.35359613
B	-0.1673683	-1.79960083	-0.03661076
C	-1.1772793	0.42627625	3.8846118
H	-0.5699596	-0.46829081	4.05154361
H	-1.82712145	0.5651167	4.75513925
H	-0.5032497	1.27966418	3.81602495
C	-2.01024348	0.27674518	2.61274691
C	-2.9472644	1.45584614	2.41028539
H	-2.39265747	2.39587085	2.37828327
H	-3.66947579	1.52183094	3.23044264
H	-3.5026647	1.3567152	1.47355262
C	-2.76092778	-1.06118981	2.61832747
H	-2.90696672	-1.48414394	3.61329502
H	-3.72576274	-1.00439476	2.10186195
C	-1.08018178	-1.17386277	1.15675916
C	-0.12161258	1.22958524	-3.53682575
H	0.46286003	2.04076051	-3.10226324
H	-0.51541033	1.56795612	-4.50112708
H	0.54681753	0.38233881	-3.7166622
C	-1.25972026	0.82798696	-2.60264983
C	-2.23920551	1.97060511	-2.39464578
H	-3.02908993	1.68313979	-1.69486773
H	-2.7097486	2.25469161	-3.34178155
H	-1.73244894	2.85335242	-1.9978989
C	-1.94944504	-0.4497221	-3.09851982
H	-3.0233781	-0.45969046	-2.88104769
H	-1.79334618	-0.65459525	-4.1588533
C	-0.73359375	-0.92556268	-1.2866194
C	3.74372691	0.90586628	1.47193412
H	3.57538114	1.95816088	1.23138127
H	4.82356393	0.76875316	1.59308047
H	3.26437044	0.6943521	2.43116391
C	3.21538958	-0.01800578	0.38582458
C	3.78369575	0.35528347	-0.98372383
H	3.45429208	-0.35886943	-1.74381612
H	4.87867027	0.35208958	-0.96193458
H	3.45509722	1.34873742	-1.29724236
C	3.51561229	-1.48876581	0.70770497
H	4.34987999	-1.90667742	0.14128321
H	3.68580726	-1.65631521	1.77753869
C	1.35055611	-1.25737886	0.22228755
C	-0.19658177	-3.40466028	-0.17074793
C	-0.18061196	-4.21841719	0.97092422
H	-0.22718435	-3.76179227	1.95550843
C	-0.10789643	-5.60444014	0.89172957
H	-0.10062504	-6.19818731	1.80253783
C	-0.04407326	-6.23098111	-0.34788986
H	0.01206021	-7.31414454	-0.41628372
C	-0.04979252	-5.45095886	-1.49724882
H	0.00233516	-5.92311281	-2.47526731
C	-0.12238589	-4.06384475	-1.40445428
H	-0.12674308	-3.48659456	-2.32291039
C	0.49854245	2.70088186	1.77970134
H	-0.19310514	2.96645279	2.57792802
H	1.49665046	2.48675587	2.15741497
C	0.4055821	3.52210317	0.60119196
C	-0.67078441	4.4276222	0.3673181
H	-1.38302644	4.60554191	1.16893284
C	-0.77994394	5.12352143	-0.81416414
H	-1.59140879	5.83506676	-0.9425093
C	0.15445621	4.94158004	-1.84844998
H	0.07101679	5.51181916	-2.7682724
C	1.18324808	4.0403783	-1.67003906
H	1.93089621	3.90836903	-2.44793417
C	1.30429278	3.31291469	-0.47576334
H	2.19404494	2.71714408	-0.30947433
N	-1.11415642	0.08232741	1.44881847
N	-0.69620429	0.36134979	-1.31505014
N	1.73459294	-0.03070007	0.30812424
O	-1.33892321	-1.50296024	-2.34067899
O	-1.91542352	-1.94595442	1.87087385
O	2.32283653	-2.18259893	0.33504328
