144

Fe           0.71633377    -4.85540411     0.16024452
O           -2.10662738    -2.63552746     2.22862043
O           -3.11608857    -5.48942057    -1.12795550
O           -0.74254619    -1.75922217    -2.05993597
N           -0.36678382    -3.90366019     1.57770126
N           -0.94636632    -5.65654833    -0.55015891
N            0.49603281    -3.33784976    -1.05869924
C            2.31752541    -5.89446486    -0.56422413
C            2.88589352    -6.02099217     0.79354182
C            2.45934880    -7.03476600     1.68699822
H            1.77664573    -7.79496331     1.32321212
C            2.95158388    -7.12046192     2.98746892
H            2.61783851    -7.92476952     3.63309768
C            3.88712393    -6.19648095     3.45405896
H            4.28003929    -6.27178833     4.45999572
C            4.32283364    -5.18354662     2.59620717
H            5.06159831    -4.46763217     2.93755012
C            3.82623677    -5.08969988     1.30024451
H            4.19845677    -4.31347151     0.64081535
C           -0.20059769    -3.82426634     3.06696551
C           -0.49989843    -5.19988299     3.66299645
H           -1.50929881    -5.51913032     3.39418118
H            0.21085514    -5.93858939     3.28784830
H           -0.42262910    -5.17030745     4.75332685
C           -1.28739290    -2.78969018     3.44181119
H           -0.86688016    -1.81353159     3.69073001
H           -1.93808879    -3.12247190     4.24800284
C           -1.43905459    -3.27792219     1.20849405
C           -1.97875333    -4.86916028    -0.66621038
C           -2.76825170    -6.87793634    -1.44869723
H           -3.49431628    -7.52785486    -0.96396164
H           -2.83202612    -6.99107599    -2.53110200
C           -1.32604153    -7.06549289    -0.92085335
C           -1.30016489    -7.93223631     0.33724194
H           -0.28516276    -8.01667700     0.72653485
H           -1.93048293    -7.49513629     1.11463873
H           -1.66840345    -8.93769660     0.11597414
C           -0.43099031    -7.63182842    -2.01586061
H           -0.39828366    -6.95311523    -2.86978764
H            0.58473738    -7.78450503    -1.66234806
H           -0.82654505    -8.59455400    -2.35367852
C           -0.67846902    -2.78130719    -1.14885502
C            0.62372058    -1.52665410    -2.57631816
H            0.55637456    -1.45560310    -3.65862042
H            0.98144791    -0.58938798    -2.15396070
C            1.42459273    -2.75710642    -2.09265539
C            2.75065191    -2.35528971    -1.45996279
H            2.58130683    -1.66918863    -0.62810749
H            3.28193093    -3.23323425    -1.09555163
H            3.38116608    -1.83915237    -2.18626604
C            1.60210516    -3.75497317    -3.23670925
H            2.05569327    -4.67957105    -2.88798586
H            0.63097763    -3.99425270    -3.67625834
H            2.23351716    -3.31832616    -4.01568066
C           -3.36552794    -2.50584328    -0.50545854
C           -4.58072542    -3.12612301    -0.16016566
H           -4.57696426    -4.16035979     0.15726685
C           -5.79851143    -2.45227386    -0.22781416
H           -6.71344268    -2.96600509     0.04541747
C           -5.84330181    -1.12417430    -0.64654562
H           -6.78891962    -0.59725129    -0.70075505
C           -4.65604774    -0.48564830    -0.99689585
H           -4.67532957     0.54437665    -1.33390778
C           -3.43886563    -1.16598757    -0.92629579
H           -2.53543656    -0.65891964    -1.23824433
C            1.19956792    -3.34903453     3.42981203
H            1.95057376    -4.08150657     3.13135564
H            1.42141341    -2.40495836     2.92645522
H            1.28421207    -3.19467966     4.50908822
B           -1.97354752    -3.28460684    -0.31373682
H            2.08977182    -6.86263084    -1.01099661
H            2.98501179    -5.34463501    -1.22977111
Fe          -0.44282473     4.62533836     0.71781422
O           -0.51209258     3.59790580    -3.35680615
O            3.31330891     4.75878962    -1.00140173
O            0.97624415     0.92330869    -0.24222588
N           -0.97269513     4.53879095    -1.36145994
N            1.46431380     5.15312510     0.21367064
N            0.01786961     2.70825821     0.72298928
C           -1.89130105     4.82197059     2.11241826
C           -1.55796120     6.21888038     2.44264320
C           -1.92648476     7.28957071     1.59767400
H           -2.55200722     7.08465315     0.73834289
C           -1.56962566     8.60715580     1.88780717
H           -1.88659319     9.40380267     1.22507126
C           -0.82895565     8.90327841     3.02920180
H           -0.56219683     9.92627269     3.26242808
C           -0.44527273     7.86002459     3.88053542
H            0.11891970     8.07898681     4.77974315
C           -0.79308293     6.54803010     3.59016885
H           -0.51096228     5.75098488     4.27013789
C           -2.22243297     4.75428605    -2.17275501
C           -2.67923654     6.20369624    -2.12400363
H           -2.99991078     6.47359641    -1.11897257
H           -1.86879748     6.87190027    -2.42064378
H           -3.52453893     6.35756648    -2.80043824
C           -1.75299572     4.35120616    -3.58585749
H           -1.50717180     5.21838516    -4.20191189
H           -2.44644024     3.70014810    -4.11252118
C           -0.11548254     3.85188788    -2.05785207
C            2.00920686     4.43407808    -0.71841312
C            3.66019980     5.93285630    -0.18271002
H            4.59274395     5.71436583     0.33343555
H            3.79633939     6.77571643    -0.86066249
C            2.45550221     6.13259368     0.77111847
C            1.89752766     7.54736604     0.69390806
H            1.02842622     7.65919092     1.34108923
H            2.65338752     8.27363842     1.00610207
H            1.59610778     7.77846401    -0.32984793
C            2.78613550     5.72959343     2.20662163
H            1.90538263     5.83560622     2.84193390
H            3.12095685     4.69054692     2.24337865
H            3.58079521     6.36462030     2.60813492
C            2.24751415     2.54684287    -2.57850770
C            2.33887210     3.05252791    -3.88792057
H            1.66790522     3.84133027    -4.19979172
C            3.26277685     2.55666829    -4.80683431
H            3.30127424     2.97334320    -5.80694917
C            4.13585364     1.53246492    -4.44451939
H            4.85451617     1.14372370    -5.15627680
C            4.06936259     1.01493615    -3.15281522
H            4.73647059     0.21661920    -2.84837240
C            3.14353648     1.51851424    -2.23792130
H            3.11920107     1.10110597    -1.23943541
C            0.73571481     2.27814594    -0.27381383
C            0.30515736     0.36625847     0.94564470
H           -0.41593163    -0.37359720     0.60058962
H            1.06690324    -0.11305972     1.56053617
C           -0.36151138     1.58021404     1.63988663
C            0.23259977     1.83407657     3.02316610
H            1.31916889     1.92643301     2.96223428
H           -0.16784566     2.75554356     3.44666545
H           -0.01063203     1.00820387     3.69774903
C           -1.87717960     1.41515812     1.68632294
H           -2.35440764     2.32431518     2.04491470
H           -2.26869076     1.18390082     0.69465670
H           -2.15034193     0.58904712     2.34818001
C           -3.29588082     3.80188462    -1.64912390
H           -2.95349331     2.76801785    -1.72159211
H           -3.51967487     4.01480156    -0.60306499
H           -4.21616020     3.90501932    -2.23106300
B            1.27417307     3.21959961    -1.49049939
H           -2.87009196     4.71504202     1.63137358
H           -1.83924108     4.17279224     2.98920230
