144

Fe      9.546412    2.324291    8.534727
O       6.399058   -0.190316    7.564388
O      10.587921   -1.686092    8.087847
O       9.751127    0.956273    4.600533
N       7.698889    1.384608    8.468571
N      10.489004    0.452737    8.662552
N       9.693993    2.202911    6.449142
C      10.303895    3.986126    9.505066
C       9.284320    4.506074   10.469180
C       9.156427    3.970247   11.750323
H       9.737682    3.266517   12.012342
C       8.221256    4.424178   12.644952
H       8.163691    4.034892   13.509180
C       7.359831    5.450478   12.288837
H       6.709236    5.770576   12.902628
C       7.465084    5.994082   11.035199
H       6.885192    6.702417   10.781866
C       8.399223    5.530759   10.134780
H       8.442392    5.917538    9.267657
C       6.398167    1.543668    9.189485
C       6.587773    1.083854   10.624076
H       6.891685    0.152161   10.631314
H       7.255837    1.649015   11.062704
H       5.734459    1.155857   11.104685
C       5.484591    0.616894    8.378819
H       4.873208    1.140242    7.804114
H       4.947270    0.040464    8.978133
C       7.616841    0.397181    7.653561
C      10.038339   -0.476424    7.899657
C      11.636163   -1.529245    9.102628
H      11.526625   -2.193727    9.829333
H      12.534938   -1.640235    8.701638
C      11.450608   -0.124073    9.625218
C      10.770937   -0.092852   11.001904
H      10.671633    0.835193   11.298666
H       9.886437   -0.512701   10.938209
H      11.310155   -0.583939   11.647542
C      12.766662    0.657191    9.629561
H      13.119356    0.706267    8.716114
H      12.606467    1.562427    9.974095
H      13.415428    0.200738   10.205714
C       9.445285    1.068422    5.920762
C      10.165307    2.302021    4.151771
H      11.025194    2.260626    3.661028
H       9.478159    2.705934    3.565485
C      10.317227    3.107451    5.458971
C       9.551474    4.413711    5.402514
H       8.602051    4.229523    5.240381
H       9.646985    4.889836    6.253714
H       9.909025    4.966075    4.674362
C      11.772624    3.332993    5.833904
H      11.818597    3.776460    6.709714
H      12.237351    2.470572    5.877333
H      12.198021    3.908409    5.159314
C       8.395722   -1.489644    5.886019
C       8.415296   -2.802334    6.389790
H       8.730976   -2.950677    7.272838
C       7.984751   -3.887350    5.635581
H       8.016913   -4.761918    6.001828
C       7.505876   -3.691864    4.337066
H       7.230841   -4.430833    3.807238
C       7.440636   -2.414798    3.837638
H       7.090911   -2.265177    2.966171
C       7.882618   -1.339150    4.596190
H       7.832586   -0.466680    4.224152
C       5.945020    2.992063    9.138818
H       6.565172    3.547618    9.655618
H       5.936211    3.298876    8.207999
H       5.043289    3.065717    9.525333
B       8.861883   -0.217596    6.771961
H      11.131142    3.742224    9.991466
H      10.528760    4.688065    8.843504
Fe      2.988922    2.348685    1.717889
O       6.514931    1.580158   -0.373486
O       4.916691    5.843372    0.661562
O       6.624167    2.974680    3.707352
N       4.428806    1.573045    0.398095
N       3.408449    4.270653    1.095848
N       4.514836    2.551592    3.161600
C       1.242449    1.348115    2.193143
C       0.078832    1.996925    1.535924
C      -0.158657    1.835263    0.163581
H       0.414077    1.277840   -0.350324
C      -1.230153    2.485629   -0.453105
H      -1.378601    2.360453   -1.382476
C      -2.070416    3.297970    0.259124
H      -2.795524    3.736643   -0.170819
C      -1.845604    3.471664    1.608305
H      -2.424873    4.030726    2.110628
C      -0.801141    2.849448    2.232228
H      -0.663432    2.998168    3.160152
C       4.556182    0.259155   -0.295314
C       3.376237    0.033761   -1.217448
H       2.558172   -0.048739   -0.686171
H       3.295444    0.790819   -1.835581
H       3.513658   -0.791019   -1.728457
C       5.861607    0.451960   -1.059657
H       5.685544    0.669537   -2.009295
H       6.421743   -0.362732   -1.013333
C       5.562573    2.182696    0.357562
C       4.651412    4.563156    0.977143
C       3.630767    6.520858    0.492190
H       3.593627    7.342612    1.045181
H       3.487518    6.768658   -0.454552
C       2.576342    5.514813    0.952533
C       1.484289    5.288103   -0.083962
H       0.841042    4.631452    0.257676
H       1.025963    6.134368   -0.260571
H       1.886639    4.942903   -0.912000
C       1.998778    5.857490    2.293028
H       1.326122    5.189565    2.539124
H       2.712676    5.867639    2.963276
H       1.582703    6.743045    2.251047
C       7.314977    4.230855    0.923581
C       7.815642    4.286917   -0.379276
H       7.330450    3.869915   -1.081371
C       9.014021    4.943256   -0.677486
H       9.349610    4.939252   -1.566324
C       9.709829    5.601037    0.322819
H      10.519010    6.056928    0.121600
C       9.229759    5.589712    1.598171
H       9.695948    6.047944    2.287238
C       8.049963    4.902101    1.890590
H       7.737066    4.894870    2.786666
C       5.641757    3.002032    2.772190
C       6.045505    2.409279    4.908876
H       6.505895    1.568175    5.152076
H       6.124194    3.045006    5.663085
C       4.576942    2.141760    4.583162
C       3.618709    2.971210    5.390933
H       3.858549    3.918779    5.312762
H       2.709425    2.842861    5.050743
H       3.650668    2.695260    6.330438
C       4.217343    0.654076    4.674362
H       3.337685    0.504110    4.270476
H       4.885794    0.124876    4.198095
H       4.189592    0.381043    5.613866
C       4.665981   -0.834646    0.764343
H       5.431655   -0.648619    1.346286
H       3.848420   -0.853577    1.299962
H       4.790685   -1.701764    0.325714
B       5.895410    3.538072    1.231924
H       1.309681    0.405688    1.894933
H       1.115718    1.352133    3.174628
